[General]
network = AntennaTestSimulation
sim-time-limit = 60s
