[General]
network = AntennaTestSimulation
num-rngs = 5
sim-time-limit = 100s
# num-rngs=200 # does it make any sense? 