[General]
network = CellularNetwork
num-rngs = 4

# PARAMETERS
record-eventlog = true
**.nUsers = 10
**.antenna.timeslot = 1ms
**.antenna.lambda = 0.1ms
**.antenna.successProbGroup1 = 0.2
**.antenna.successProbGroup2 = 0.5
**.antenna.successProbGroup3 = 0.9
**.antenna.isBinomial = true

# useless stuff...
# **.user[*].lambda = 0.001s

# Simulation stuff
sim-time-limit=10s
repeat = 10
seed-set = ${repetition}

# Random Number Generators
**.antenna.rng-0 = 0
**.user[*].rng-0    = 1
**.user[*].rng-1    = 2
**.user[*].rng-2    = 3

# OUTPUT TO FILE
# cmdenv-redirect-output = true
# cmdenv-express-mode = false 
# cmdenv-output-file=${resultdir}/${configname}-${iterationvarsf}.txt
